#======================================================================

# CRYSTAL DATA

#----------------------------------------------------------------------

data_VESTA_phase_1


_pd_phase_name                         ''
_cell_length_a                         9.174(2)
_cell_length_b                         5.449(2)
_cell_length_c                         5.138(2)
_cell_angle_alpha                      90
_cell_angle_beta                       90
_cell_angle_gamma                      90
_symmetry_space_group_name_H-M         'P b c a'
_symmetry_Int_Tables_number            61

loop_
_symmetry_equiv_pos_as_xyz
   'x, y, z'
   '-x, -y, -z'
   '-x+1/2, -y, z+1/2'
   'x+1/2, y, -z+1/2'
   '-x, y+1/2, -z+1/2'
   'x, -y+1/2, z+1/2'
   'x+1/2, -y+1/2, -z'
   '-x+1/2, y+1/2, z'

loop_
   _atom_site_label
   _atom_site_occupancy
   _atom_site_fract_x
   _atom_site_fract_y
   _atom_site_fract_z
   _atom_site_adp_type
   _atom_site_B_iso_or_equiv
   _atom_site_type_symbol
   Ti1        1.0     0.12890(10)   0.09720(10)   0.86280(10)  Biso  1.000000 Ti
   O1         1.0     0.0095(4)     0.1491(5)     0.1835(5)    Biso  1.000000 O
   O2         1.0     0.2314(4)     0.1110(4)     0.5366(7)    Biso  1.000000 O

loop_
   _atom_site_aniso_label
   _atom_site_aniso_U_11
   _atom_site_aniso_U_22
   _atom_site_aniso_U_33
   _atom_site_aniso_U_12
   _atom_site_aniso_U_13
   _atom_site_aniso_U_23
   Ti1	 0.00000  0.00000  0.00000  0.00000  0.00000  0.00000
   O1	 0.00000  0.00000  0.00000  0.00000  0.00000  0.00000
   O2	 0.00000  0.00000  0.00000  0.00000  0.00000  0.00000
